LAMMPS (8 Feb 2023)
# single PEG molecule
# Written by Simon Gravelle
# My personal page : https://simongravelle.github.io/
# My Github account: https://github.com/simongravelle/
# LAMMPS tutorials for beginners: https://lammpstutorials.github.io/

units real
atom_style full
bond_style harmonic
angle_style charmm
dihedral_style charmm
pair_style lj/cut/tip4p/long 1 2 1 1 0.105 12.0
kspace_style pppm/tip4p 1.0e-4
special_bonds lj 0.0 0.0 0.5

read_data PEG.data
Reading data file ...
  orthogonal box = (-40 -40 -40) to (40 40 40)
  reading atoms ...
  66 atoms
  reading velocities ...
  66 velocities
  scanning bonds ...
  scanning angles ...
  scanning dihedrals ...
  reading bonds ...
  65 bonds
  reading angles ...
  118 angles
  reading dihedrals ...
  74 dihedrals
Finding 1-2 1-3 1-4 neighbors ...
     4 = max # of 1-2 neighbors
     6 = max # of 1-3 neighbors
    12 = max # of 1-4 neighbors
    14 = max # of special neighbors
include PARM.lammps
# Mass

mass 1 15.9994 # H2O O
mass 2 1.008 # H2O H
mass 3 12.011 # CC32A
mass 4 15.9994 # OC30A
mass 5 1.008 # HCA2
mass 6 15.9994 # OC311
mass 7 1.008 # HCP1

# Pair Coeff

pair_coeff 1 1 0.18479 3.165 # H2O - TIP4P - epsilon water model
pair_coeff 2 2 0.0 0.0
pair_coeff 3 3 0.056 3.58141
pair_coeff 4 4 0.100 2.93997
pair_coeff 5 5 0.035 2.38761
pair_coeff 6 6 0.192 3.14487
pair_coeff 7 7 0.046 0.40001

# Bond coeff

bond_coeff 1 0 0.9572
bond_coeff 2 222.35 1.5300
bond_coeff 3 308.79 1.1111
bond_coeff 4 359.76 1.1415
bond_coeff 5 427.715 1.1420
bond_coeff 6 544.635 0.9600

# Angle coeff

angle_coeff 1 0 104.52 0 0
angle_coeff	2 50.0000 109.0000 0.0000 0.0000
angle_coeff	3 26.5000 110.1000 22.5300 2.179
angle_coeff	4 45.0000 111.5000 0.0000 0.0000
angle_coeff	5 13.0258 109.4000 0.0000 0.0000
angle_coeff	6 35.5000 109.0000 5.4000 1.802
angle_coeff	7 55.0000 108.8900 0.0000 0.0000
angle_coeff	8 75.7000 110.1000 0.0000 0.0000
angle_coeff	9 95.0000 109.7000 0.0000 0.0000

# Dihedral coeff
# weighting factor put to 0, possibly wrong

dihedral_coeff 1 0.57 1 0 0
dihedral_coeff 2 0.29 2 0 0
dihedral_coeff 3 0.43 3 0 0
dihedral_coeff 4 0.59 1 180 0
dihedral_coeff 5 1.16 2 0 0
dihedral_coeff 6 0.12 1 0 0
dihedral_coeff 7 0.42 2 0 0
dihedral_coeff 8 0.29 3 0 0
dihedral_coeff 9 2.87 1 180 0
dihedral_coeff 10 0.03 2 0 0
dihedral_coeff 11 0.23 3 0 0
dihedral_coeff 12 1.36 1 180 0
dihedral_coeff 13 0.16 2 0 0
dihedral_coeff 14 1.01 3 0 0

dump mydmp all xtc 10 dump.xtc
thermo 10

fix mynve all nve
fix myber all temp/berendsen 650 650 100
fix myrct all recenter INIT INIT INIT
fix mymom all momentum 100 linear 1 1 1 angular

thermo 100
timestep 1
run 2000
PPPM initialization ...
  extracting TIP4P info from pair style
  G vector (1/distance) = 0.10648487
  grid = 8 8 8
  stencil order = 5
  estimated absolute RMS force accuracy = 0.02206014
  estimated relative force accuracy = 6.6433457e-05
  3d grid and FFT values/proc = 2197 512
Generated 21 of 21 mixed pair_coeff terms from geometric mixing rule
Step          Temp          E_pair         E_mol          TotEng         Press
0   626.75337      7.2634168      168.73172      297.43027      34.179959
Averages over the last 11 of 21 rows, steps 1000 to 2000:
Temp E_pair E_mol TotEng Press
659.264 9.73674 163.682 301.153 4.25765
Loop time of 0.129767 on 1 procs for 2000 steps with 66 atoms

write_data PEG.data
System init for write_data ...
PPPM initialization ...
  extracting TIP4P info from pair style
  G vector (1/distance) = 0.10648487
  grid = 8 8 8
  stencil order = 5
  estimated absolute RMS force accuracy = 0.02206014
  estimated relative force accuracy = 6.6433457e-05
  3d grid and FFT values/proc = 2197 512
Generated 21 of 21 mixed pair_coeff terms from geometric mixing rule
